* DIODES INCORPORATED AND ITS AFFILIATED COMPANIES AND SUBSIDIARIES (COLLECTIVELY, "DIODES") 
* PROVIDE THESE SPICE MODELS AND DATA (COLLECTIVELY, THE "SM DATA") "AS IS" AND WITHOUT ANY 
* REPRESENTATIONS OR WARRANTIES, EXPRESS OR IMPLIED, INCLUDING ANY WARRANTY OF MERCHANTABILITY 
* OR FITNESS FOR A PARTICULAR PURPOSE, ANY WARRANTY ARISING FROM COURSE OF DEALING OR COURSE OF 
* PERFORMANCE, OR ANY WARRANTY THAT ACCESS TO OR OPERATION OF THE SM DATA WILL BE UNINTERRUPTED, 
* OR THAT THE SM DATA OR ANY SIMULATION USING THE SM DATA WILL BE ERROR FREE. TO THE MAXIMUM 
* EXTENT PERMITTED BY LAW, IN NO EVENT WILL DIODES BE LIABLE FOR ANY DIRECT OR INDIRECT, 
* SPECIAL, INCIDENTAL, PUNITIVE OR CONSEQUENTIAL DAMAGES ARISING OUT OF OR IN CONNECTION WITH 
* THE PRODUCTION OR USE OF SM DATA, HOWEVER CAUSED AND UNDER WHATEVER CAUSE OF ACTION OR THEORY 
* OF LIABILITY BROUGHT (INCLUDING, WITHOUT LIMITATION, UNDER ANY CONTRACT, NEGLIGENCE OR OTHER 
* TORT THEORY OF LIABILITY), EVEN IF DIODES HAS BEEN ADVISED OF THE POSSIBILITY OF SUCH DAMAGES, 
* AND DIODES' TOTAL LIABILITY (WHETHER IN CONTRACT, TORT OR OTHERWISE) WITH REGARD TO THE SM 
* DATA WILL NOT, IN THE AGGREGATE, EXCEED ANY SUMS PAID BY YOU TO DIODES FOR THE SM DATA.



.subckt AZ431A ANODE CATHODE REF
Q10 Cathode Q10_B Q10_E  0 n1
Q3 Q3_C Q3_B Q3_E  0 n1
Q11 Cathode Q11_B Anode  0 n1 
Q1 Cathode REF Q3_B  0 n1 
Q8 Q3_C Q3_C Q8_E  0 p1 
Q9 Q10_B Q3_C Q9_E  0 p1 
C1 Cathode Q10_B  14p
C2 Q6_C Q6_B    13p
Q5 Q5_C Q5_C Anode  0 n1
Q4 Q6_B Q5_C Q4_E   0 n1
Q7 Q10_B Q7_B Anode  0 n1
Q6 Q6_C Q6_B Anode   0 n1
Q2 Q10_B Q10_B REF   0 n1 
R7 Q3_E Q6_C 4.1K
R6 Q5_C Q7_B 1.29K 
R5 Q4_E Anode 0.936K 
R28 R1_N Q6_B 7.488K 
R4 R1_N Q5_C 2.808K
R1 Q3_B R1_N 5.4K 
R9 Cathode Q9_E 1.01K
R8 Cathode Q8_E 1.01K
R10 Q10_E Q11_B 263.8
R11 Q11_B Anode 8.9K
.model p1 pnp bf=50
.model n1 npn bf=100 tf=2n cjc=1p is=5e-18 NF=1.07
*.model diode d rs=1 cjo=2p
.ends