Version 4.1
SHEET 1 1256 680
WIRE 416 -144 32 -144
WIRE 816 -144 416 -144
WIRE 32 -80 32 -144
WIRE 816 -64 816 -144
WIRE 1024 -64 816 -64
WIRE 816 -48 816 -64
WIRE 1024 -48 1024 -64
WIRE 416 -32 416 -64
WIRE 768 -32 416 -32
WIRE 416 -16 416 -32
WIRE 1024 48 1024 16
WIRE 1024 48 816 48
WIRE 368 64 320 64
WIRE 320 80 320 64
WIRE 320 80 256 80
WIRE 1024 80 1024 48
WIRE 256 160 256 80
WIRE 32 192 32 80
WIRE 816 192 816 48
WIRE 816 400 816 352
FLAG 32 192 0
FLAG 416 80 0
FLAG 256 240 0
FLAG 816 400 0
FLAG 1024 144 0
SYMBOL voltage 32 -16 R0
WINDOW 123 0 0 Left 0
WINDOW 39 24 124 Left 2
SYMATTR InstName V1
SYMATTR Value 12
SYMATTR SpiceLine Rser=.001
SYMBOL nmos 368 -16 R0
SYMATTR InstName M1
SYMATTR Value DMT6009LCT
SYMATTR Prefix X
SYMBOL voltage 256 144 R0
WINDOW 123 0 0 Left 0
WINDOW 39 0 0 Left 0
SYMATTR InstName V2
SYMATTR Value PULSE(0 3.3 0.1 3n 3n .1 .2 100)
SYMBOL res 400 -160 R0
SYMATTR InstName R1
SYMATTR Value 10k
SYMBOL pmos 768 48 M180
SYMATTR InstName M2
SYMATTR Value irf4905
SYMATTR Prefix X
SYMBOL res 800 176 R0
SYMATTR InstName R3
SYMATTR Value 300
SYMBOL ind 800 256 R0
SYMATTR InstName L1
SYMATTR Value .5
SYMBOL cap 1008 -48 R0
SYMATTR InstName C2
SYMATTR Value 10”
SYMBOL res 16 -96 R0
SYMATTR InstName R4
SYMATTR Value 50
SYMBOL diode 1040 144 R180
WINDOW 0 24 64 Left 2
WINDOW 3 24 0 Left 2
SYMATTR InstName D1
TEXT -688 -64 Left 2 !.tran 0.3
TEXT -600 -344 Left 2 !.lib C:\\Users\\DeskDave\\Desktop\\inverter_control\\DMT6009LCT.spice.txt
TEXT -608 -304 Left 2 !.inc C:\\Users\\DeskDave\\Desktop\\inverter_control\\irf4905.spi
TEXT -600 -240 Left 2 !.inc C:\\Users\\DeskDave\\Desktop\\inverter_control\\irf540n.txt
