Version 4.1
SHEET 1 1692 680
WIRE 320 -96 192 -96
WIRE 336 -96 320 -96
WIRE 320 32 320 -96
WIRE 320 32 224 32
WIRE 448 32 320 32
WIRE 224 128 224 32
WIRE 320 128 304 128
WIRE 336 128 320 128
WIRE 480 128 416 128
WIRE 448 208 448 32
WIRE 448 208 368 208
WIRE 320 224 320 128
WIRE 336 224 320 224
WIRE 480 240 480 128
WIRE 480 240 400 240
WIRE 672 240 560 240
WIRE 800 240 672 240
WIRE 336 256 240 256
WIRE 240 304 240 256
WIRE 672 320 672 240
WIRE 672 432 672 384
WIRE 672 576 672 496
FLAG 112 128 0
FLAG 368 272 0
FLAG 240 384 0
FLAG 112 -96 0
FLAG 880 240 0
FLAG 672 576 0
SYMBOL voltage 208 128 R90
WINDOW 123 0 0 Left 0
WINDOW 39 0 0 Left 0
SYMATTR InstName V1
SYMATTR Value SINE(12 2 1 0 0 0 100)
SYMBOL res 320 112 R90
WINDOW 0 0 56 VBottom 2
WINDOW 3 32 56 VTop 2
SYMATTR InstName R1
SYMATTR Value 2k
SYMBOL res 432 112 R90
WINDOW 0 0 56 VBottom 2
WINDOW 3 32 56 VTop 2
SYMATTR InstName R2
SYMATTR Value 1k
SYMBOL voltage 240 288 R0
WINDOW 123 0 0 Left 0
WINDOW 39 0 0 Left 0
SYMATTR InstName Vref
SYMATTR Value 5.4
SYMBOL voltage 208 -96 R90
WINDOW 0 -32 56 VBottom 2
WINDOW 3 32 56 VTop 2
WINDOW 123 0 0 Left 0
WINDOW 39 0 0 Left 0
SYMATTR InstName V2
SYMATTR Value SINE(1 1 1 0 0 0 100)
SYMBOL OpAmps\\UniversalOpAmp5 368 240 R0
SYMATTR InstName LM318
SYMBOL res 576 224 R90
WINDOW 0 0 56 VBottom 2
WINDOW 3 32 56 VTop 2
SYMATTR InstName R3
SYMATTR Value 10k
SYMBOL res 896 224 R90
WINDOW 0 0 56 VBottom 2
WINDOW 3 32 56 VTop 2
SYMATTR InstName R4
SYMATTR Value 10Meg
SYMBOL LED 656 320 R0
SYMATTR InstName red1
SYMATTR Value QTLP690C
SYMBOL LED 656 432 R0
SYMATTR InstName red2
SYMATTR Value QTLP690C
TEXT 88 88 VRight 2 !.tran 1
TEXT 976 416 Left 2 !.lib C:\\Users\\DeskDave\\Desktop\\inverter_control\\LM318.txt
